Version 4
SHEET 1 996 680
WIRE -96 16 -240 16
WIRE -240 80 -240 16
WIRE -192 80 -240 80
WIRE -96 96 -96 16
WIRE -96 96 -128 96
WIRE -48 96 -96 96
WIRE 0 96 -48 96
WIRE 144 96 80 96
WIRE 192 96 144 96
WIRE 304 96 192 96
WIRE 480 96 384 96
WIRE 640 96 480 96
WIRE -368 112 -400 112
WIRE -256 112 -288 112
WIRE -192 112 -256 112
WIRE 144 128 144 96
WIRE 480 128 480 96
WIRE 640 128 640 96
WIRE -176 160 -176 128
WIRE 320 160 320 144
WIRE 320 160 256 160
WIRE -400 176 -400 112
WIRE 256 192 256 160
WIRE 144 224 144 192
WIRE 368 224 368 144
WIRE 480 224 480 192
WIRE 640 224 640 208
WIRE -592 288 -592 272
WIRE -400 304 -400 256
WIRE 256 320 256 272
FLAG 368 224 0
FLAG 480 224 0
FLAG 256 320 0
FLAG -400 304 0
FLAG 480 96 SAR_CAP
FLAG -592 288 0
FLAG -592 192 Vc
FLAG -400 112 INPUT
FLAG 192 96 ADC_IN
FLAG 256 160 SMPL
FLAG 640 224 0
FLAG -176 160 0
FLAG -176 64 Vc
FLAG -256 112 Ain+
FLAG -48 96 OUT
FLAG 144 224 0
SYMBOL sw 400 96 M270
SYMATTR InstName S1
SYMBOL cap 464 128 R0
SYMATTR InstName C1
SYMATTR Value 31p
SYMBOL voltage 256 176 R0
WINDOW 123 0 0 Left 0
WINDOW 39 0 0 Left 0
SYMATTR InstName V1
SYMATTR Value PULSE(0 1 688n 2n 2n 312n 1u 24)
SYMBOL voltage -400 160 R0
WINDOW 123 0 0 Left 0
WINDOW 39 24 124 Left 2
WINDOW 3 85 73 Left 2
SYMATTR Value SINE(2.5 2 250K 1u 0 0 2)
SYMATTR InstName V2
SYMBOL voltage -592 176 R0
WINDOW 123 0 0 Left 0
WINDOW 39 0 0 Left 0
SYMATTR InstName V3
SYMATTR Value 5
SYMBOL res -272 96 R90
WINDOW 0 0 56 VBottom 2
WINDOW 3 32 56 VTop 2
SYMATTR InstName R3
SYMATTR Value 100
SYMBOL res 624 112 R0
SYMATTR InstName R2
SYMATTR Value 1G
SYMBOL OpAmps\\ADA4807 -160 96 R0
SYMATTR InstName U2
SYMBOL res 96 80 R90
WINDOW 0 0 56 VBottom 2
WINDOW 3 32 56 VTop 2
SYMATTR InstName R1
SYMATTR Value 50
SYMBOL cap 128 128 R0
SYMATTR InstName C2
SYMATTR Value 1n
TEXT -208 288 Left 2 !.tran 0 10E-6 0 1.E-10
TEXT 96 0 Left 2 !.model SW SW(Ron=40 Roff=1G Vt=.5 Vh=-.4)
TEXT -600 40 Left 2 ;Sensor output
