Version 4
SHEET 1 900 680
WIRE -352 -80 -432 -80
WIRE -192 -80 -272 -80
WIRE -720 0 -864 0
WIRE -864 64 -864 0
WIRE -816 64 -864 64
WIRE -336 64 -336 32
WIRE -720 80 -720 0
WIRE -720 80 -752 80
WIRE -608 80 -720 80
WIRE -432 80 -432 -80
WIRE -432 80 -528 80
WIRE -400 80 -432 80
WIRE -352 80 -400 80
WIRE -992 96 -1024 96
WIRE -816 96 -912 96
WIRE -192 96 -192 -80
WIRE -192 96 -288 96
WIRE -144 96 -192 96
WIRE -32 96 -64 96
WIRE 96 96 -32 96
WIRE 208 96 96 96
WIRE 384 96 288 96
WIRE 544 96 384 96
WIRE -400 112 -480 112
WIRE -352 112 -400 112
WIRE -32 128 -32 96
WIRE 384 128 384 96
WIRE 544 128 544 96
WIRE -800 144 -800 112
WIRE -1024 160 -1024 96
WIRE -336 160 -336 128
WIRE 224 160 224 144
WIRE 224 160 160 160
WIRE 160 192 160 160
WIRE -480 224 -480 112
WIRE -32 224 -32 192
WIRE 272 224 272 144
WIRE 384 224 384 192
WIRE 544 224 544 208
WIRE -1216 272 -1216 256
WIRE -1024 288 -1024 240
WIRE 160 320 160 272
FLAG 272 224 0
FLAG 384 224 0
FLAG 160 320 0
FLAG -1024 288 0
FLAG 384 96 SAR_CAP
FLAG -1216 272 0
FLAG -336 160 0
FLAG -1216 176 Vc
FLAG -336 32 Vc
FLAG -1024 96 INPUT
FLAG -400 80 IN-
FLAG 96 96 OUTPUT
FLAG -400 112 IN+
FLAG 160 160 SMPL
FLAG -32 224 0
FLAG 544 224 0
FLAG -480 304 0
FLAG -800 144 0
FLAG -800 48 Vc
SYMBOL sw 304 96 M270
SYMATTR InstName S1
SYMBOL cap 368 128 R0
SYMATTR InstName C1
SYMATTR Value 45p
SYMBOL voltage 160 176 R0
WINDOW 123 0 0 Left 0
WINDOW 39 0 0 Left 0
SYMATTR InstName V1
SYMATTR Value PULSE(0 1 688n 2n 2n 312n 1u 4000)
SYMBOL voltage -1024 144 R0
WINDOW 123 0 0 Left 0
WINDOW 39 24 124 Left 2
WINDOW 3 52 98 Left 2
SYMATTR Value PWL file=Fl_0.02s.txt
SYMATTR InstName V2
SYMBOL voltage -1216 160 R0
WINDOW 123 0 0 Left 0
WINDOW 39 0 0 Left 0
SYMATTR InstName V3
SYMATTR Value 5
SYMBOL res -896 80 R90
WINDOW 0 0 56 VBottom 2
WINDOW 3 32 56 VTop 2
SYMATTR InstName R3
SYMATTR Value 100
SYMBOL res -48 80 R90
WINDOW 0 0 56 VBottom 2
WINDOW 3 32 56 VTop 2
SYMATTR InstName R1
SYMATTR Value 20
SYMBOL cap -48 128 R0
SYMATTR InstName C2
SYMATTR Value 2n
SYMBOL OpAmps\\ADA4807 -320 96 R0
SYMATTR InstName U1
SYMBOL res 528 112 R0
SYMATTR InstName R2
SYMATTR Value 1G
SYMBOL res -512 64 R90
WINDOW 0 0 56 VBottom 2
WINDOW 3 32 56 VTop 2
SYMATTR InstName R4
SYMATTR Value 1k
SYMBOL res -256 -96 R90
WINDOW 0 0 56 VBottom 2
WINDOW 3 32 56 VTop 2
SYMATTR InstName R5
SYMATTR Value 1k
SYMBOL voltage -480 208 R0
WINDOW 123 0 0 Left 0
WINDOW 39 0 0 Left 0
SYMATTR InstName V4
SYMATTR Value 1.25
SYMBOL OpAmps\\ADA4807 -784 80 R0
SYMATTR InstName U2
TEXT -904 288 Left 2 !.tran 4E-3
TEXT 16 -32 Left 2 !.model SW SW(Ron=40 Roff=1G Vt=.5 Vh=-.4
TEXT -360 232 Left 2 ;Invert and shift
TEXT -1224 24 Left 2 ;Sensor output
RECTANGLE Normal 32 -112 32 -112 2
