Version 4
SHEET 1 2360 680
WIRE 256 -32 112 -32
WIRE 288 -32 256 -32
WIRE 704 16 640 16
WIRE 880 16 768 16
WIRE 176 32 160 32
WIRE 160 48 160 32
WIRE 1888 48 1552 48
WIRE 2208 48 1952 48
WIRE 112 64 112 -32
WIRE 144 64 112 64
WIRE 256 80 256 -32
WIRE 256 80 208 80
WIRE 432 80 256 80
WIRE 640 80 640 16
WIRE 640 80 512 80
WIRE 784 80 640 80
WIRE 880 80 880 16
WIRE 880 80 864 80
WIRE 928 80 880 80
WIRE 1040 80 1008 80
WIRE 1120 80 1040 80
WIRE 1184 80 1120 80
WIRE -176 96 -272 96
WIRE -112 96 -176 96
WIRE 144 96 -32 96
WIRE 720 112 704 112
WIRE 1040 112 1040 80
WIRE 704 128 704 112
WIRE -272 160 -272 96
WIRE 1184 160 1184 80
WIRE 1488 160 1184 160
WIRE 1600 160 1488 160
WIRE 1760 160 1680 160
WIRE 1936 160 1840 160
WIRE 2016 160 1936 160
WIRE 2128 160 2096 160
WIRE 512 176 496 176
WIRE 144 192 112 192
WIRE 256 192 256 80
WIRE 256 192 224 192
WIRE 496 192 496 176
WIRE 640 192 640 80
WIRE 672 192 640 192
WIRE 880 192 880 80
WIRE 880 192 832 192
WIRE 1552 208 1552 48
WIRE 1616 208 1552 208
WIRE 1664 224 1664 208
WIRE 672 256 640 256
WIRE 880 256 832 256
WIRE 1552 256 1552 208
WIRE 2032 256 2032 208
WIRE 2208 256 2208 48
WIRE 2208 256 2032 256
WIRE -272 272 -272 240
WIRE 112 272 112 192
WIRE 144 272 112 272
WIRE 256 272 224 272
WIRE 496 288 496 272
WIRE -608 304 -624 304
WIRE -96 304 -96 288
WIRE -624 320 -624 304
WIRE 768 320 736 320
WIRE 1488 320 1184 320
WIRE 1600 320 1488 320
WIRE 1760 320 1680 320
WIRE 1936 320 1840 320
WIRE 2016 320 1936 320
WIRE 2128 320 2128 160
WIRE 2128 320 2096 320
WIRE 176 336 160 336
WIRE 704 336 704 320
WIRE 160 352 160 336
WIRE 112 368 112 272
WIRE 144 368 112 368
WIRE 1552 368 1552 256
WIRE 1616 368 1552 368
WIRE 256 384 256 272
WIRE 256 384 208 384
WIRE 432 384 256 384
WIRE 640 384 640 256
WIRE 640 384 512 384
WIRE 784 384 640 384
WIRE 880 384 880 256
WIRE 880 384 864 384
WIRE 928 384 880 384
WIRE 1040 384 1008 384
WIRE 1120 384 1040 384
WIRE 1184 384 1184 320
WIRE 1184 384 1120 384
WIRE 1664 384 1664 368
WIRE -96 400 -96 384
WIRE -32 400 -96 400
WIRE 144 400 -32 400
WIRE 1040 400 1040 384
WIRE -624 416 -624 400
WIRE -96 416 -96 400
WIRE 1552 416 1552 368
WIRE -32 432 -32 400
WIRE 2032 432 2032 368
WIRE 2208 432 2208 256
WIRE 2208 432 2032 432
WIRE 640 448 640 384
WIRE 720 448 640 448
WIRE 880 448 880 384
WIRE 880 448 784 448
WIRE 112 496 112 368
WIRE 144 496 112 496
WIRE 256 496 256 384
WIRE 256 496 208 496
WIRE 288 496 256 496
WIRE -96 512 -96 496
WIRE -32 512 -32 496
WIRE -32 512 -96 512
WIRE 2128 512 2128 320
WIRE -96 528 -96 512
WIRE 1552 544 1552 496
FLAG 176 32 P4V
FLAG 176 336 P4V
FLAG -96 528 0
FLAG -96 288 P4V
FLAG -272 272 0
FLAG 720 112 P4V
FLAG 704 336 0
FLAG 768 320 VCM
FLAG 512 176 VCM
FLAG 496 288 0
FLAG 288 -32 vsens_n
FLAG 288 496 vsens_p
FLAG 1120 80 adc_inp
FLAG 1120 384 adc_inn
FLAG -624 416 0
FLAG -608 304 P4V
FLAG 1664 384 0
FLAG 1552 544 0
FLAG 1552 256 CLOCK
FLAG 1664 224 0
FLAG 2080 208 0
FLAG 2128 512 0
FLAG 2080 368 0
FLAG 1936 160 Cs+
FLAG 1936 320 Cs-
FLAG 1488 224 0
FLAG 1488 384 0
FLAG 1936 224 0
FLAG 1936 384 0
FLAG 1888 64 0
FLAG 1040 464 0
FLAG 1040 176 0
FLAG -176 96 sensor
FLAG 160 112 0
FLAG 160 416 0
SYMBOL res 240 176 R90
WINDOW 0 0 56 VBottom 2
WINDOW 3 32 56 VTop 2
SYMATTR InstName R1
SYMATTR Value 2.00K
SYMBOL res 240 256 R90
WINDOW 0 0 56 VBottom 2
WINDOW 3 32 56 VTop 2
SYMATTR InstName R2
SYMATTR Value 2.00K
SYMBOL res -80 400 R180
WINDOW 0 36 76 Left 2
WINDOW 3 36 40 Left 2
SYMATTR InstName R3
SYMATTR Value 2.1K
SYMBOL res -80 512 R180
WINDOW 0 36 76 Left 2
WINDOW 3 36 40 Left 2
SYMATTR InstName R4
SYMATTR Value 2.2k
SYMBOL cap -48 432 R0
SYMATTR InstName C1
SYMATTR Value 0.1µ
SYMBOL voltage -272 144 R0
WINDOW 3 -375 -165 Left 2
WINDOW 123 0 0 Left 0
WINDOW 39 -130 8 Left 2
SYMATTR Value PULSE(2.5 1.9 2E-6 1e-8 1e-8 2.E-6 4e-6 3)
SYMATTR SpiceLine Rser=500
SYMATTR InstName V1
SYMBOL Opamps\\AD8137 704 224 R0
WINDOW 0 47 -87 Left 2
SYMATTR InstName U3
SYMBOL res 528 64 R90
WINDOW 0 0 56 VBottom 2
WINDOW 3 32 56 VTop 2
SYMATTR InstName R7
SYMATTR Value 499
SYMBOL res 528 368 R90
WINDOW 0 0 56 VBottom 2
WINDOW 3 32 56 VTop 2
SYMATTR InstName R8
SYMATTR Value 499
SYMBOL res 880 64 R90
WINDOW 0 0 56 VBottom 2
WINDOW 3 32 56 VTop 2
SYMATTR InstName R9
SYMATTR Value 2.5k
SYMBOL res 880 368 R90
WINDOW 0 0 56 VBottom 2
WINDOW 3 32 56 VTop 2
SYMATTR InstName R10
SYMATTR Value 2.5k
SYMBOL res 1024 64 R90
WINDOW 0 0 56 VBottom 2
WINDOW 3 32 56 VTop 2
SYMATTR InstName R11
SYMATTR Value 22
SYMBOL res 1024 368 R90
WINDOW 0 0 56 VBottom 2
WINDOW 3 32 56 VTop 2
SYMATTR InstName R12
SYMATTR Value 22
SYMBOL cap 1024 112 R0
SYMATTR InstName C2
SYMATTR Value 1.2n
SYMBOL cap 1024 400 R0
SYMATTR InstName C3
SYMATTR Value 1.2n
SYMBOL cap 768 0 R90
WINDOW 0 0 32 VBottom 2
WINDOW 3 32 32 VTop 2
SYMATTR InstName C4
SYMATTR Value 20p
SYMBOL cap 784 432 R90
WINDOW 0 0 32 VBottom 2
WINDOW 3 32 32 VTop 2
SYMATTR InstName C5
SYMATTR Value 20p
SYMBOL voltage 496 176 R0
WINDOW 0 31 25 Left 2
WINDOW 123 0 0 Left 0
WINDOW 39 0 0 Left 0
SYMATTR InstName V3
SYMATTR Value 2
SYMBOL cap 208 480 R90
WINDOW 0 0 32 VBottom 2
WINDOW 3 32 32 VTop 2
SYMATTR InstName C6
SYMATTR Value 2.2p
SYMBOL voltage -624 304 R0
WINDOW 0 31 25 Left 2
WINDOW 123 0 0 Left 0
WINDOW 39 0 0 Left 0
SYMATTR InstName V4
SYMATTR Value 4.3
SYMBOL cap 1952 224 R180
WINDOW 0 24 56 Left 2
WINDOW 3 24 8 Left 2
SYMATTR InstName C9
SYMATTR Value 31p
SYMBOL cap 1952 384 R180
WINDOW 0 24 56 Left 2
WINDOW 3 24 8 Left 2
SYMATTR InstName C10
SYMATTR Value 31p
SYMBOL sw 1696 320 M270
SYMATTR InstName S1
SYMBOL voltage 1552 400 R0
WINDOW 123 0 0 Left 0
WINDOW 39 0 0 Left 0
SYMATTR InstName V5
SYMATTR Value PULSE(0 1 1.6e-6 2n 2n 300n 2.e-6 20)
SYMBOL sw 1696 160 M270
SYMATTR InstName S2
SYMBOL res 1856 144 R90
WINDOW 0 0 56 VBottom 2
WINDOW 3 32 56 VTop 2
SYMATTR InstName R5
SYMATTR Value 0
SYMBOL res 1856 304 R90
WINDOW 0 0 56 VBottom 2
WINDOW 3 32 56 VTop 2
SYMATTR InstName R6
SYMATTR Value 0
SYMBOL sw 2112 160 M270
SYMATTR InstName S3
SYMBOL sw 2112 320 M270
SYMATTR InstName S4
SYMBOL cap 1472 160 R0
SYMATTR InstName C11
SYMATTR Value 2p
SYMBOL cap 1472 320 R0
SYMATTR InstName C12
SYMATTR Value 2p
SYMBOL Digital\\inv 1888 -16 R0
SYMATTR InstName A1
SYMBOL OpAmps\\ADA4807 176 384 R0
SYMATTR InstName U1
SYMBOL OpAmps\\ADA4807 176 80 R0
SYMATTR InstName U2
SYMBOL res -16 80 R90
WINDOW 0 0 56 VBottom 2
WINDOW 3 32 56 VTop 2
SYMATTR InstName R13
SYMATTR Value 100
TEXT -392 40 Left 2 ;CCD ouput pulse
TEXT -464 520 Left 2 !.tran 0 20e-6 0
TEXT 152 -80 Left 2 ;Sensor Bd.
TEXT 640 -72 Left 2 ;Assume Vref=4V
TEXT 1864 -48 Right 2 ;ADC input
TEXT 1552 608 Left 2 !.model SW SW(Ron=200 Roff=1G Vt=.5 Vh=-.4
TEXT 864 552 Left 3 ;Use THS4521
